%mem=3800mb
%nprocshared=1
#T b3lyp/Def2SVPP opt=(MaxCycles=300) int(grid=ultrafine) IOP(3/36=4) scf=(xqc,tight) 

Comment gs min 

2 1
C -7.14930 0.49200 0.82570
C -5.79390 0.68150 0.93900
C -5.02510 -0.14520 0.14660
N -3.56160 -0.07570 0.13730
C -2.86450 -1.04110 -0.52010
C -1.46760 -1.03080 -0.56680
C -0.73740 -0.01790 0.05560
C 0.73800 0.01570 0.00730
C 1.43160 1.15620 -0.39870
C 2.82840 1.16690 -0.44880
N 3.56140 0.07640 -0.09750
C 5.02250 0.15420 -0.17410
C 5.83770 -0.83410 0.33670
C 7.18350 -0.61090 0.17840
N 7.67790 0.48000 -0.42550
C 6.80220 1.37860 -0.87980
N 5.47260 1.27020 -0.77870
C 2.91090 -1.04580 0.29530
C 1.51260 -1.09370 0.35370
C -1.47610 0.96670 0.71580
C -2.87540 0.92230 0.74560
N -5.52610 -1.08370 -0.67910
C -6.86040 -1.17570 -0.71020
N -7.69430 -0.42270 0.00990
H -7.86130 1.08010 1.40230
H -5.42850 1.42380 1.62930
H -3.41450 -1.84070 -1.01320
H -0.96580 -1.82640 -1.11740
H 0.89940 2.05780 -0.70180
H 3.34940 2.06750 -0.76910
H 5.51520 -1.72570 0.84880
H 7.92900 -1.31580 0.54270
H 7.20610 2.26180 -1.36640
H 3.48100 -1.93250 0.55100
H 1.04060 -2.01990 0.68270
H -0.97430 1.78860 1.22700
H -3.41850 1.71470 1.24920
H -7.30510 -1.91680 -1.36820

